/*--------------------------------*- C++ -*----------------------------------*\
| =========                 |                                                 |
| \\      /  F ield         | OpenFOAM: The Open Source CFD Toolbox           |
|  \\    /   O peration     | Version:  v2006                                 |
|   \\  /    A nd           | Website:  www.openfoam.com                      |
|    \\/     M anipulation  |                                                 |
\*---------------------------------------------------------------------------*/
FoamFile
{
    version     2.0;
    format      ascii;
    class       dictionary;
    location    "system";
    object      fvSchemes;
}
// * * * * * * * * * * * * * * * * * * * * * * * * * * * * * * * * * * * * * //

ddtSchemes
{
    default         steadyState; // Euler // ddt(T)          CrankNicolson 1;
}

gradSchemes
{
    default         leastSquares;//Gauss linear; //Gauss pointLinear;
}

divSchemes
{
    default         none;
    div(phi,T)      Gauss SuperBee; //upwind; //linearUpwind grad(T);
}

laplacianSchemes
{
    default         none;
    laplacian(DT,T) Gauss linear orthogonal;// Gauss linear limited 0.333; //Gauss linear corrected; //Gauss linear corrected; //Gauss linear orthogonal; //Gauss linear correctedd;
}

interpolationSchemes
{
    default         linear;
}

snGradSchemes
{
    default         corrected; //limited 0.333; // corrected;
}


// ************************************************************************* //
